Circuit: * C:\Users\User\Downloads\f2fbd5fd-61cb-4148-8af6-a258be88e4d9\LM78XX.asc

.OP point found by inspection.

Date: Sat Sep 19 11:09:38 2020
Total elapsed time: 0.460 seconds.

tnom = 27
temp = 27
method = modified trap
totiter = 2254
traniter = 2254
tranpoints = 1098
accept = 1073
rejected = 25
matrix size = 43
fillins = 38
solver = Normal
Matrix Compiler1: 6.45 KB object code size  3.9/2.3/[1.2]
Matrix Compiler2: 5.02 KB object code size  1.7/2.0/[1.0]

