Circuit: * C:\Users\User\Documents\Altium\LTspice\Draft1.asc

Limiting rise time of source v3 to 0.0005
Limiting fall time of source v3 to 0.0005
Per .tran options, skipping operating point for transient analysis.
Ignoring empty pin current: Ix(u3:5)

Date: Mon Jan 25 17:33:04 2021
Total elapsed time: 0.375 seconds.

tnom = 27
temp = 27
method = modified trap
totiter = 9935
traniter = 9935
tranpoints = 3504
accept = 2795
rejected = 709
matrix size = 80
fillins = 55
solver = Normal
Thread vector: 8.0/6.0[2] 2.3/2.5[1] 0.9/1.4[1] 0.3/1.1[1]  2592/500
Matrix Compiler1: 7.67 KB object code size  1.2/0.7/[0.3]
Matrix Compiler2: 7.40 KB object code size  0.5/0.7/[0.3]

