Circuit: * C:\Users\User\Documents\LTspiceXVII\Draft1.asc

Limiting rise time of source v3 to 0.0005
Limiting fall time of source v3 to 0.0005
WARNING: Node NC_05 is floating.

WARNING: Less than two connections to node NC_04.  This node is used by V4.
WARNING: Less than two connections to node NC_05.  This node is used by V4.
Per .tran options, skipping operating point for transient analysis.
Ignoring empty pin current: Ix(u3:5)
Heightened Def Con from 0.0223166 to 0.0223166
Heightened Def Con from 0.0234909 to 0.0234909
Heightened Def Con from 0.0234919 to 0.0234919
Heightened Def Con from 0.0234919 to 0.0234919
Heightened Def Con from 0.0234921 to 0.0234921
Heightened Def Con from 0.0234921 ++to 0.0234921
Heightened Def Con from 0.0234921 to 0.0234921
Heightened Def Con from 0.0234921 ++to 0.0234921
Heightened Def Con from 0.0234921 +to 0.0234921
Heightened Def Con from 0.0234921 +++to 0.0234921
Heightened Def Con from 0.0234921 +++++to 0.0234921
Heightened Def Con from 0.0234921 ++to 0.0234921
Heightened Def Con from 0.0234921 +++to 0.0234921
Heightened Def Con from 0.0234921 +to 0.0234921
Heightened Def Con from 0.0234921 to 0.0234921
Heightened Def Con from 0.0234921 ++to 0.0234921
Heightened Def Con from 0.0234921 ++++++to 0.0234921
Heightened Def Con from 0.0234922 +++to 0.0234922
Heightened Def Con from 0.0234922 +to 0.0234922
Heightened Def Con from 0.0256515 to 0.0256515
Heightened Def Con from 0.0256517 ++to 0.0256517
Heightened Def Con from 0.0256517 +to 0.0256517
Heightened Def Con from 0.0356515 to 0.0356515
Heightened Def Con from 0.0356515 to 0.0356516
Heightened Def Con from 0.0456515 to 0.0456515
Heightened Def Con from 0.0456517 ++to 0.0456517
Heightened Def Con from 0.0456517 to 0.0456517
Heightened Def Con from 0.0456517 ++to 0.0456517
Heightened Def Con from 0.0456517 +to 0.0456517
Heightened Def Con from 0.0504168 to 0.0504168
Heightened Def Con from 0.0556515 to 0.0556515
Heightened Def Con from 0.0556515 to 0.0556515
Heightened Def Con from 0.0604167 to 0.0604167
Heightened Def Con from 0.0656511 to 0.0656511
Heightened Def Con from 0.0656515 to 0.0656515
Heightened Def Con from 0.0656515 to 0.0656515
Heightened Def Con from 0.0656517 to 0.0656517
Heightened Def Con from 0.0656517 +to 0.0656517
Heightened Def Con from 0.0656517 ++++++to 0.0656517
Heightened Def Con from 0.0704168 to 0.0704168
Heightened Def Con from 0.0756515 to 0.0756515
Heightened Def Con from 0.0856515 to 0.0856515
Heightened Def Con from 0.0856517 +to 0.0856517
Heightened Def Con from 0.0856517 to 0.0856517
Heightened Def Con from 0.0856518 ++to 0.0856518
Heightened Def Con from 0.0856518 +++++++to 0.0856518
Heightened Def Con from 0.0856518 to 0.0856518
Heightened Def Con from 0.0856518 +to 0.0856518
Heightened Def Con from 0.0856518 +++to 0.0856518
Heightened Def Con from 0.0904168 to 0.0904168
Heightened Def Con from 0.0956515 to 0.0956515
Heightened Def Con from 0.0956515 to 0.0956515
Heightened Def Con from 0.0956515 to 0.0956515

Date: Mon Sep 21 22:23:16 2020
Total elapsed time: 1.546 seconds.

tnom = 27
temp = 27
method = modified trap
totiter = 36853
traniter = 36853
tranpoints = 8781
accept = 6270
rejected = 2624
matrix size = 79
fillins = 52
solver = Normal
Matrix Compiler1: 7.49 KB object code size  3.4/3.6/[1.1]
Matrix Compiler2: 7.23 KB object code size  1.3/3.3/[0.9]

